Exp11a: To verify the characteristics of a given clamper circuit using SPICE
*CLAMPER CIRCUIT
VIN 1 0 10 SIN(0 10 1KHZ)
C1 1 2 1UF IC=-15V
R1 2 0 1MEG
VDC 3 0 DC 5
D1 3 2 DIODE
.MODEL DIODE D
.TRAN 20US 3MS
.PROBE
.END

Exp11b: To verify the characteristics of a given clamper circuit using SPICE
*CLAMPER CIRCUIT
VIN 1 0 10 SIN(0 10 1KHZ)
C1 1 2 1UF IC=15V
R1 2 0 1MEG
VDC 3 0 DC 5
D1 2 3 DIODE
.MODEL DIODE D
.TRAN 20US 3MS
.PROBE
.END
