Exp11_challenge: To plot the transfer characteristics of a given clamper circuit using SPICE
*CLAMPER CIRCUIT
*VIN 1 0 10V SIN(0 10 1KHZ)
VIN 1 0 PWL 0 0 1M 1 3M -1 5M 1 7M -1 8M 0
C1 1 2 1UF IC=-15V
R1 2 0 1MEG
VDC 3 0 DC 5
D1 3 2 DIODE
.MODEL DIODE D
.TRAN 20US 8MS
.PROBE
.END
